<div class="department-for-education-brand-colour">
  <div class="grid-row">
    <div class="column-two-thirds">
      <div class="gem-c-organisation-logo brand--department-for-education">
    <a class="gem-c-organisation-logo__container gem-c-organisation-logo__link gem-c-organisation-logo__crest gem-c-organisation-logo__crest--single-identity brand__border-color" href="/government/organisations/department-for-education">
      <span class="gem-c-organisation-logo__name">Department <br></br>for Education</span>
</a>
</div>

    </div>
  </div>
  <div class="grid-row">
    <div class="column-two-thirds">
      <div class="gem-c-title
  
  gem-c-title--margin-bottom-5">
  <h1 class="gem-c-title__text ">
    Procurement at DfE
  </h1>
</div>

    </div>
    
    <div class="column-two-thirds">
      
  <p class="gem-c-lead-paragraph ">
    Bidding for Department for Education contracts. 
  </p>

      
    </div>
  </div>

  <div class="grid-row ">
    <div class="column-two-thirds">
        <div id="contents" class="app-c-contents-list-with-body" data-module="sticky-element-container">
      <div class="responsive-bottom-margin">
          <nav role="navigation" class="gem-c-contents-list gem-c-contents-list--no-underline " data-module="track-click">
      <h2 class="gem-c-contents-list__title">Contents</h2>

    <ol class="gem-c-contents-list__list">
        <li class="gem-c-contents-list__list-item gem-c-contents-list__list-item--dashed ">
          <a class="gem-c-contents-list__link " data-track-category="contentsClicked" data-track-action="content_item 1" data-track-label="#latest-contracting-opportunities" data-track-options="{"dimension29":"Latest contracting opportunities"}" href="#latest-contracting-opportunities">Latest contracting opportunities</a>
        </li>
        <li class="gem-c-contents-list__list-item gem-c-contents-list__list-item--dashed ">
          <a class="gem-c-contents-list__link " data-track-category="contentsClicked" data-track-action="content_item 2" data-track-label="#redimo2" data-track-options="{"dimension29":"Redimo2"}" href="#redimo2">Redimo2</a>
        </li>
        <li class="gem-c-contents-list__list-item gem-c-contents-list__list-item--dashed ">
          <a class="gem-c-contents-list__link " data-track-category="contentsClicked" data-track-action="content_item 3" data-track-label="#educational-and-childrens-social-care-professionals-dynamic-purchasing-system" data-track-options="{"dimension29":"Educational and Children’s Social Care Professionals Dynamic Purchasing System"}" href="#educational-and-childrens-social-care-professionals-dynamic-purchasing-system">Educational and Children’s Social Care Professionals Dynamic Purchasing System</a>
        </li>
        <li class="gem-c-contents-list__list-item gem-c-contents-list__list-item--dashed ">
          <a class="gem-c-contents-list__link " data-track-category="contentsClicked" data-track-action="content_item 4" data-track-label="#standard-terms-and-conditions-for-dfe-contracts" data-track-options="{"dimension29":"Standard terms and conditions for DfE contracts"}" href="#standard-terms-and-conditions-for-dfe-contracts">Standard terms and conditions for DfE contracts</a>
        </li>
        <li class="gem-c-contents-list__list-item gem-c-contents-list__list-item--dashed ">
          <a class="gem-c-contents-list__link " data-track-category="contentsClicked" data-track-action="content_item 5" data-track-label="#small-and-medium-enterprises-smes" data-track-options="{"dimension29":"Small and medium enterprises (SMEs)"}" href="#small-and-medium-enterprises-smes">Small and medium enterprises (SMEs)</a>
        </li>
        <li class="gem-c-contents-list__list-item gem-c-contents-list__list-item--dashed ">
          <a class="gem-c-contents-list__link " data-track-category="contentsClicked" data-track-action="content_item 6" data-track-label="#eu-and-uk-procurement-law" data-track-options="{"dimension29":"EU and UK procurement law"}" href="#eu-and-uk-procurement-law">EU and UK procurement law</a>
        </li>
        <li class="gem-c-contents-list__list-item gem-c-contents-list__list-item--dashed ">
          <a class="gem-c-contents-list__link " data-track-category="contentsClicked" data-track-action="content_item 7" data-track-label="#how-we-process-your-personal-data" data-track-options="{"dimension29":"How we process your personal data"}" href="#how-we-process-your-personal-data">How we process your personal data</a>
        </li>
    </ol>
  </nav>

      </div>
    
        <div class="responsive-bottom-margin">
          
<div class="gem-c-govspeak govuk-govspeak " data-module="govspeak">
      <div class="govspeak">
<h2 id="latest-contracting-opportunities">Latest contracting opportunities</h2>

<p>We, and our executive agencies, advertise new contracting opportunities in the following places, where appropriate:</p>

<ul>
  <li>
<a rel="external" href="http://ted.europa.eu/TED/main/HomePage.do">Tenders Electronic Daily (<abbr title="Tenders Electronic Daily">TED</abbr>) website</a>, part of the Official Journal of the European Union (for contracts we have to advertise internationally)</li>
  <li><a href="https://www.gov.uk/government/organisations/department-for-education/about/research">DfE’s research page</a></li>
  <li><a href="https://www.gov.uk/contracts-finder">Contracts Finder</a></li>
  <li>specialist publications, and trade, national and local press</li>
  <li>Redimo2</li>
</ul>

<h3 id="forthcoming-opportunities">Forthcoming opportunities</h3>

<p>We use a variety of means to notify suppliers of future opportunities, including:</p>

<ul>
  <li>advertising <a rel="external" href="http://ted.europa.eu/TED/main/HomePage.do">prior information notices (PIN)</a> on the <abbr title="Tenders Electronic Daily">TED</abbr> website</li>
  <li>publishing <a rel="external" href="https://www.contractsfinder.service.gov.uk/Search/Results?IncludeContract=False&LocationType=AllLocations">notices on Contracts Finder</a>
</li>
  <li>publishing opportunities to tender on Redimo2</li>
</ul>

<h3 id="duns-numbers">DUNS numbers</h3>
<p>‘DUNS numbers’ provide us with valuable information about which suppliers are bidding for our contracts. We encourage interested suppliers to <a rel="external" href="http://salesmarketing.dnb.co.uk/find_my_company/">register with Duns numbers</a>.</p>

<h3 id="prompt-payment-policy">Prompt payment policy</h3>
<p>We follow government policy and pay all correctly submitted invoices within 10 days of receiving them at the physical or electronic address that we’ve specified.</p>

<h2 id="redimo2">Redimo2</h2>

<p>Redimo2 is the e-procurement system for the Department for Education (DfE) and its executive agencies. It’s a password-protected online service.</p>

<p>As a potential supplier you should register with Redimo2 so that you can:</p>

<ul>
  <li>view opportunities to tender</li>
  <li>submit tender responses</li>
  <li>access the Educational and Children’s Social Care Professionals Dynamic Purchasing System (ECSC DPS)</li>
</ul>

<h3 id="registering-for-redimo2">Registering for Redimo2</h3>

<p>Read our <span id="attachment_2831295" class="attachment-inline">
  <a href="/government/uploads/system/uploads/attachment_data/file/727491/Redimo2_Supplier_Guidance_-_DFE_Registration_.pdf">Guidance on registering for Redimo2</a>
  (<span class="type"><abbr title="Portable Document Format">PDF</abbr></span>, <span class="file-size">5.13MB</span>, <span class="page-length">18 pages</span>)
</span>
. This includes details of the process you’ll need to follow in order to set up your account.</p>

<div class="call-to-action">
<p><a rel="external" href="https://supplierlive.proactisp2p.com/Account/Login/?cid=DFE">Register to use Redimo2</a></p>
</div>

<p>For help with Redimo2, email the commercial contact point team.</p>

<div class="contact " id="contact_3078">
  <div class="content">
    <h3>Commercial contact point team</h3>

    <div class="vcard contact-inner">

        <div class="email-url-number">
            <p class="email">
              <span class="type">Email</span>
              <a class="email" href="mailto:commercial.contactpoint@education.gov.uk">commercial.contactpoint@education.gov.uk</a>
            </p>
        </div>


    </div>
  </div>
</div>

<h2 id="educational-and-childrens-social-care-professionals-dynamic-purchasing-system">Educational and Children’s Social Care Professionals Dynamic Purchasing System</h2>

<p>We use the ECSC DPS to buy professional, educational and children’s social care services to support government policy in schools and local authorities. The DPS is run via Redimo2.</p>

<h3 id="terms-and-conditions-for-using-the-ecsc-dps">Terms and conditions for using the ECSC DPS</h3>

<p>If you wish to join the ECSC DPS and be eligible for contracts, you must:</p>

<ul>
  <li>register your interest on <a rel="external" href="https://supplierlive.proactisp2p.com/Account/Login/?cid=DFE">Redimo2</a>
</li>
  <li>have knowledge of and experience in early years, schools or children’s services</li>
  <li>be able to show that you have 1 or more of the ECSC skill sets, which we describe in the ECSC handbook</li>
  <li>read and accept the membership of ECSC framework terms and conditions</li>
  <li>read and accept the supply of services by ECSC professionals terms and conditions</li>
  <li>confirm none of the criteria for mandatory exclusion apply</li>
  <li>confirm you are compliant with <a href="https://www.gov.uk/guidance/ir35-find-out-if-it-applies">IR35 tax legislation</a>
</li>
</ul>

<p>See the <a rel="external" href="https://www.contractsfinder.service.gov.uk/Notice/db987548-9c78-4581-ad0b-fabda89bbfec">ECSC Contracts Finder notice</a> for the following documents with additional information:</p>

<ul>
  <li>invitation to participate</li>
  <li>applying for ECSC membership</li>
  <li>tendering in Redimo2</li>
  <li>ECSC handbook (including daily rates and skill set descriptions)</li>
  <li>terms and conditions for call-off</li>
  <li>DPS agreement</li>
  <li>mandatory exclusion criteria</li>
</ul>

<p>You can find more information on how we evaluate tenders in our <span id="attachment_2831296" class="attachment-inline">
  <a href="/government/uploads/system/uploads/attachment_data/file/507037/Commercial_Guidance_-_An_Associate_Guide_to_the_RFQ_submission_and_evaluation_process.pdf">Guide to the request for quotation, submission and evaluation process</a>
  (<span class="type"><abbr title="Portable Document Format">PDF</abbr></span>, <span class="file-size">258KB</span>, <span class="page-length">8 pages</span>)
</span>
.</p>

<h3 id="data-handling-and-security">Data handling and security</h3>

<p>If you handle data, you must make sure that you comply with our departmental security procedures. There are different schedules you must follow based on the amount of data you manage:</p>

<ul>
  <li>
    <p><span id="attachment_2831293" class="attachment-inline">
<a href="/government/uploads/system/uploads/attachment_data/file/507034/Basic_Security_Schedule_100316.pdf">Basic security schedule</a>
(<span class="type"><abbr title="Portable Document Format">PDF</abbr></span>, <span class="file-size">197KB</span>, <span class="page-length">7 pages</span>)
</span></p>
  </li>
  <li>
    <p><span id="attachment_2831294" class="attachment-inline">
<a href="/government/uploads/system/uploads/attachment_data/file/507035/Enhanced_Security_Schedule_100316.pdf">Enhanced security schedule</a>
(<span class="type"><abbr title="Portable Document Format">PDF</abbr></span>, <span class="file-size">203KB</span>, <span class="page-length">8 pages</span>)
</span></p>
  </li>
</ul>

<p>The basic schedule applies where the department needs to share data with the supplier. The enhanced schedule is for suppliers handling particularly sensitive data. We will tell you which schedule you need to follow when we invite tenders.</p>

<h2 id="standard-terms-and-conditions-for-dfe-contracts">Standard terms and conditions for DfE contracts</h2>

<p>If you would like to know which terms and conditions apply when bidding for a particular DfE contract, contact the person named in the advertisement and tender documentation.</p>

<p>Due to the complexity of many of our requirements, we compile contract terms and conditions on a case-by-case basis. However, we base most on the following standard terms and conditions:</p>

<ul>
  <li>
    <p><span id="attachment_2831290" class="attachment-inline">
<a href="/government/uploads/system/uploads/attachment_data/file/367390/Contract_for_consultancy_with_a_company.odt">standard terms and conditions for consultancy</a>
(<span class="type"><abbr title="OpenDocument Text document">ODT</abbr></span>, <span class="file-size">55.3KB</span>)
</span></p>
  </li>
  <li>
    <p><span id="attachment_2831291" class="attachment-inline">
<a href="/government/uploads/system/uploads/attachment_data/file/367391/Contract_for_a_project_or_services.odt">standard terms and conditions for services</a>
(<span class="type"><abbr title="OpenDocument Text document">ODT</abbr></span>, <span class="file-size">48.2KB</span>)
</span></p>
  </li>
</ul>

<h3 id="purchase-orders">Purchase orders</h3>

<p>Our purchase orders (documents that ask a company to supply goods and give details of price, method and date of payment) are subject to our <span id="attachment_2831292" class="attachment-inline">
  <a href="/government/uploads/system/uploads/attachment_data/file/403694/PF4_-_conditions_of_purchase_for_goods.pdf">terms and conditions for goods</a>
  (<span class="type"><abbr title="Portable Document Format">PDF</abbr></span>, <span class="file-size">148KB</span>, <span class="page-length">8 pages</span>)
</span>
.</p>

<h2 id="small-and-medium-enterprises-smes">Small and medium enterprises (<abbr title="small and medium-sized enterprises">SMEs</abbr>)</h2>

<p>We’re committed to engaging with <abbr title="small and medium-sized enterprises">SMEs</abbr> and always treat their tenders and applications fairly in comparison to larger organisations. We’ll continue to encourage and support all collaborative partnerships between <abbr title="small and medium-sized enterprises">SMEs</abbr> or <abbr title="small and medium-sized enterprises">SMEs</abbr> and larger organisations.</p>

<p>We also run innovation days where suppliers can meet each other and showcase what they offer. We advertise these on <a rel="external" href="http://www.linkedin.com/company/uk-department-for-education">LinkedIn</a> and <a rel="external" href="https://twitter.com/educationgovuk">Twitter</a>.</p>

<p><abbr title="small and medium-sized enterprises">SMEs</abbr> can contact the SME mailbox.</p>

<div class="contact " id="contact_1103">
  <div class="content">
    <h3>SME mailbox</h3>

    <div class="vcard contact-inner">

        <div class="email-url-number">
            <p class="email">
              <span class="type">Email</span>
              <a class="email" href="mailto:SMEs.MAILBOX@education.gov.uk"><abbr title="small and medium-sized enterprises">SMEs</abbr>.MAILBOX@education.gov.uk</a>
            </p>
        </div>


    </div>
  </div>
</div>

<h2 id="eu-and-uk-procurement-law">EU and UK procurement law</h2>

<p>We must follow EU Treaty, EU Procurement Directive (EU rules) and UK laws that govern how we may buy goods, services and works over a specified value or ‘threshold’.</p>

<p>Where we expect the estimated value of a contract to be over the relevant EU threshold, we must advertise our requirements on the <a rel="external" href="http://ted.europa.eu/TED/main/HomePage.do">Tenders Electronic Daily (<abbr title="Tenders Electronic Daily">TED</abbr>) website</a>, part of the Official Journal of the European Union.</p>

<p>The current thresholds are <a href="https://www.gov.uk/government/publications/procurement-policy-note-1815-new-threshold-levels-2016">published by the Cabinet Office</a>.</p>

<h2 id="how-we-process-your-personal-data">How we process your personal data</h2>

<p>We are changing the way we process your personal data relating to financial transactions when we interact with you. Our services provider Shared Services Connected Limited (SSCL) may process some of this data offshore. For more information see <a href="https://www.gov.uk/government/publications/personal-data-processing-fair-processing-notice">Personal data processing: fair processing notice</a>.</p>

</div>
</div>

        </div>

      <div data-sticky-element class="app-c-contents-list-with-body__link-wrapper">
        <div class="app-c-contents-list-with-body__link-container">
          <a class="app-c-back-to-top dont-print" href="#contents">
    <svg class="app-c-back-to-top__icon" xmlns="http://www.w3.org/2000/svg" width="13" height="17" viewbox="0 0 13 17">
      <path fill="currentColor" d="M6.5 0L0 6.5 1.4 8l4-4v12.7h2V4l4.3 4L13 6.4z"></path>
    </svg>
    Contents
</a>

        </div>
      </div>
  </div>
    </div>
  </div>
</div>